Version 4
SHEET 1 1768 680
WIRE 1008 -48 992 -48
WIRE 1120 -48 1088 -48
WIRE 992 32 992 -48
WIRE 1056 32 992 32
WIRE 1184 32 1184 -48
WIRE 1184 32 1136 32
WIRE 736 48 704 48
WIRE 832 48 800 48
WIRE 608 128 576 128
WIRE 704 128 704 48
WIRE 704 128 688 128
WIRE 720 128 704 128
WIRE 832 128 832 48
WIRE 832 128 800 128
WIRE 864 128 832 128
WIRE 992 128 992 32
WIRE 992 128 928 128
WIRE 1024 128 992 128
WIRE 176 144 176 128
WIRE 288 144 288 128
WIRE 1024 160 1024 128
WIRE 1040 160 1024 160
WIRE 1184 176 1184 32
WIRE 1184 176 1104 176
WIRE 1248 176 1184 176
WIRE 1328 176 1312 176
WIRE 1040 192 1024 192
WIRE 1184 208 1184 176
WIRE 720 224 688 224
WIRE 832 224 800 224
WIRE 912 224 832 224
WIRE 1024 224 1024 192
WIRE 1024 224 912 224
WIRE 176 240 176 224
WIRE 288 240 288 224
WIRE 832 256 832 224
WIRE 912 256 912 224
WIRE 992 304 992 128
WIRE 1056 304 992 304
WIRE 1184 304 1184 272
WIRE 1184 304 1120 304
WIRE 1248 304 1184 304
WIRE 1360 304 1328 304
WIRE 832 368 832 320
WIRE 912 368 912 336
WIRE 1360 368 1360 304
FLAG 912 368 0
FLAG 832 368 0
FLAG 176 240 0
FLAG 688 224 VCC
FLAG 576 128 IN
FLAG 1360 368 0
FLAG 288 240 0
FLAG 288 128 IN
FLAG 1072 208 0
FLAG 1072 144 VCC
FLAG 1328 176 OUT
FLAG 176 128 VCC
SYMBOL res 704 112 R90
WINDOW 0 0 56 VBottom 2
WINDOW 3 32 56 VTop 2
SYMATTR InstName R1
SYMATTR Value 100k
SYMBOL res 816 112 R90
WINDOW 0 0 56 VBottom 2
WINDOW 3 32 56 VTop 2
SYMATTR InstName R2
SYMATTR Value 82k
SYMBOL res 816 208 R90
WINDOW 0 0 56 VBottom 2
WINDOW 3 32 56 VTop 2
SYMATTR InstName R3
SYMATTR Value 1Meg
SYMBOL cap 736 64 R270
WINDOW 0 32 32 VTop 2
WINDOW 3 0 32 VBottom 2
SYMATTR InstName C1
SYMATTR Value 1n
SYMBOL cap 864 144 R270
WINDOW 0 32 32 VTop 2
WINDOW 3 0 32 VBottom 2
SYMATTR InstName C2
SYMATTR Value 47n
SYMBOL cap 816 256 R0
SYMATTR InstName C3
SYMATTR Value 10µ
SYMBOL res 896 240 R0
SYMATTR InstName R4
SYMATTR Value 1Meg
SYMBOL res 1040 48 R270
WINDOW 0 32 56 VTop 2
WINDOW 3 0 56 VBottom 2
SYMATTR InstName R5
SYMATTR Value 470k
SYMBOL res 992 -32 R270
WINDOW 0 32 56 VTop 2
WINDOW 3 0 56 VBottom 2
SYMATTR InstName R6
SYMATTR Value 1.2Meg
SYMBOL cap 1120 -32 R270
WINDOW 0 32 32 VTop 2
WINDOW 3 0 32 VBottom 2
SYMATTR InstName C4
SYMATTR Value 22p
SYMBOL cap 1168 208 R0
SYMATTR InstName C5
SYMATTR Value 2n
SYMBOL cap 1120 288 R90
WINDOW 0 0 32 VBottom 2
WINDOW 3 32 32 VTop 2
SYMATTR InstName C6
SYMATTR Value 6.8n
SYMBOL voltage 176 128 R0
SYMATTR InstName V1
SYMATTR Value 9V
SYMBOL cap 1312 160 R90
WINDOW 0 0 32 VBottom 2
WINDOW 3 32 32 VTop 2
SYMATTR InstName C7
SYMATTR Value 1µ
SYMBOL res 1344 288 R90
WINDOW 0 0 56 VBottom 2
WINDOW 3 32 56 VTop 2
SYMATTR InstName R7
SYMATTR Value {LDR}
SYMBOL voltage 288 128 R0
WINDOW 123 24 124 Left 2
WINDOW 39 0 0 Left 2
SYMATTR Value2 AC 1
SYMATTR InstName V2
SYMATTR Value SINE(0 1 1000)
SYMBOL Opamps\\LT1001 1072 112 R0
SYMATTR InstName U1
TEXT 144 368 Left 2 !.step param LDR list 100 500 1k 2k 5k 10k 50k 100k 500k 1meg
TEXT 144 328 Left 2 !.ac oct 50 100 15000
